<routes>

             <vType id="data" color="0,1,0" accel="0.73" decel="1.67" length="5" minGap="2.0" maxSpeed="14" 
            carFollowModel="IDM" tau="1.0"/>

            <vType id="human" color="0,0,1" accel="0.73" decel="1.67" length="5" minGap="2.0" maxSpeed="14" 
            carFollowModel="IDM" tau="1.6"/>

            <vType id="accident" color="1,0,0" accel="0.73" decel="1400" length="5" minGap="2.0" maxSpeed="14" 
            carFollowModel="IDM" tau="1.6"/>

            <route id="r_1" edges="bottom0A0 A0A1 A1top0" />

            <route id="r_2" edges="bottom1B0 B0B1 B1top1" />

            <route id="r_3" edges="left1A1 A1B1 B1right1" />

            <route id="r_4" edges="left0A0 A0B0 B0right0" />
            
            <route id="r_5" edges="top0A1 A1A0 A0bottom0" />

            <route id="r_6" edges="top1B1 B1B0 B0bottom1" />

            <route id="r_7" edges="right1B1 B1A1 A1left1" />

            <route id="r_8" edges="right0B0 B0A0 A0left0" />

            
<vehicle id="0" type="human" route="r_5" depart="3" reroute="1" departLane="free"/>
<vehicle id="1" type="data" route="r_3" depart="3" reroute="1" departLane="free"/>
<vehicle id="2" type="human" route="r_1" depart="4" reroute="1" departLane="free"/>
<vehicle id="3" type="human" route="r_1" depart="4" reroute="1" departLane="free"/>
<vehicle id="4" type="human" route="r_5" depart="4" reroute="1" departLane="free"/>
<vehicle id="5" type="data" route="r_1" depart="4" reroute="1" departLane="free"/>
<vehicle id="6" type="data" route="r_6" depart="4" reroute="1" departLane="free"/>
<vehicle id="7" type="data" route="r_3" depart="4" reroute="1" departLane="free"/>
<vehicle id="8" type="human" route="r_2" depart="5" reroute="1" departLane="free"/>
<vehicle id="9" type="human" route="r_4" depart="5" reroute="1" departLane="free"/>
<vehicle id="10" type="human" route="r_2" depart="5" reroute="1" departLane="free"/>
<vehicle id="11" type="data" route="r_8" depart="5" reroute="1" departLane="free"/>
<vehicle id="12" type="data" route="r_1" depart="5" reroute="1" departLane="free"/>
<vehicle id="13" type="data" route="r_6" depart="5" reroute="1" departLane="free"/>
<vehicle id="14" type="human" route="r_2" depart="7" reroute="1" departLane="free"/>
<vehicle id="15" type="human" route="r_7" depart="7" reroute="1" departLane="free"/>
<vehicle id="16" type="data" route="r_7" depart="7" reroute="1" departLane="free"/>
<vehicle id="17" type="data" route="r_7" depart="7" reroute="1" departLane="free"/>
<vehicle id="18" type="human" route="r_7" depart="8" reroute="1" departLane="free"/>
<vehicle id="19" type="human" route="r_1" depart="8" reroute="1" departLane="free"/>
<vehicle id="20" type="data" route="r_1" depart="8" reroute="1" departLane="free"/>
<vehicle id="21" type="data" route="r_3" depart="8" reroute="1" departLane="free"/>
<vehicle id="22" type="human" route="r_5" depart="10" reroute="1" departLane="free"/>
<vehicle id="23" type="data" route="r_4" depart="10" reroute="1" departLane="free"/>
<vehicle id="24" type="human" route="r_4" depart="11" reroute="1" departLane="free"/>
<vehicle id="25" type="human" route="r_6" depart="11" reroute="1" departLane="free"/>
<vehicle id="26" type="human" route="r_1" depart="11" reroute="1" departLane="free"/>
<vehicle id="27" type="human" route="r_7" depart="11" reroute="1" departLane="free"/>
<vehicle id="28" type="human" route="r_6" depart="11" reroute="1" departLane="free"/>
<vehicle id="29" type="data" route="r_3" depart="11" reroute="1" departLane="free"/>
<vehicle id="30" type="data" route="r_5" depart="11" reroute="1" departLane="free"/>
<vehicle id="31" type="data" route="r_5" depart="11" reroute="1" departLane="free"/>
<vehicle id="32" type="data" route="r_5" depart="11" reroute="1" departLane="free"/>
<vehicle id="33" type="data" route="r_3" depart="11" reroute="1" departLane="free"/>
<vehicle id="34" type="human" route="r_4" depart="12" reroute="1" departLane="free"/>
<vehicle id="35" type="data" route="r_2" depart="12" reroute="1" departLane="free"/>
<vehicle id="36" type="human" route="r_8" depart="14" reroute="1" departLane="free"/>
<vehicle id="37" type="human" route="r_5" depart="14" reroute="1" departLane="free"/>
<vehicle id="38" type="data" route="r_5" depart="14" reroute="1" departLane="free"/>
<vehicle id="39" type="data" route="r_6" depart="14" reroute="1" departLane="free"/>
<vehicle id="40" type="human" route="r_8" depart="15" reroute="1" departLane="free"/>
<vehicle id="41" type="human" route="r_6" depart="15" reroute="1" departLane="free"/>
<vehicle id="42" type="human" route="r_4" depart="15" reroute="1" departLane="free"/>
<vehicle id="43" type="human" route="r_5" depart="16" reroute="1" departLane="free"/>
<vehicle id="44" type="human" route="r_6" depart="16" reroute="1" departLane="free"/>
<vehicle id="45" type="human" route="r_4" depart="16" reroute="1" departLane="free"/>
<vehicle id="46" type="data" route="r_6" depart="16" reroute="1" departLane="free"/>
<vehicle id="47" type="data" route="r_1" depart="16" reroute="1" departLane="free"/>
<vehicle id="48" type="data" route="r_5" depart="16" reroute="1" departLane="free"/>
<vehicle id="49" type="human" route="r_3" depart="17" reroute="1" departLane="free"/>
<vehicle id="50" type="data" route="r_2" depart="17" reroute="1" departLane="free"/>
<vehicle id="51" type="human" route="r_5" depart="19" reroute="1" departLane="free"/>
<vehicle id="52" type="human" route="r_8" depart="19" reroute="1" departLane="free"/>
<vehicle id="53" type="human" route="r_5" depart="19" reroute="1" departLane="free"/>
<vehicle id="54" type="data" route="r_8" depart="19" reroute="1" departLane="free"/>
<vehicle id="55" type="data" route="r_2" depart="19" reroute="1" departLane="free"/>
<vehicle id="56" type="data" route="r_1" depart="19" reroute="1" departLane="free"/>
<vehicle id="57" type="human" route="r_5" depart="20" reroute="1" departLane="free"/>
<vehicle id="58" type="data" route="r_1" depart="20" reroute="1" departLane="free"/>
<vehicle id="59" type="human" route="r_4" depart="21" reroute="1" departLane="free"/>
<vehicle id="60" type="data" route="r_6" depart="21" reroute="1" departLane="free"/>
<vehicle id="61" type="human" route="r_3" depart="22" reroute="1" departLane="free"/>
<vehicle id="62" type="human" route="r_8" depart="22" reroute="1" departLane="free"/>
<vehicle id="63" type="human" route="r_8" depart="22" reroute="1" departLane="free"/>
<vehicle id="64" type="human" route="r_5" depart="23" reroute="1" departLane="free"/>
<vehicle id="65" type="data" route="r_2" depart="23" reroute="1" departLane="free"/>
<vehicle id="66" type="human" route="r_6" depart="24" reroute="1" departLane="free"/>
<vehicle id="67" type="data" route="r_4" depart="24" reroute="1" departLane="free"/>
<vehicle id="68" type="human" route="r_4" depart="25" reroute="1" departLane="free"/>
<vehicle id="69" type="data" route="r_6" depart="25" reroute="1" departLane="free"/>
<vehicle id="70" type="human" route="r_7" depart="26" reroute="1" departLane="free"/>
<vehicle id="71" type="data" route="r_2" depart="26" reroute="1" departLane="free"/>
<vehicle id="72" type="human" route="r_6" depart="27" reroute="1" departLane="free"/>
<vehicle id="73" type="human" route="r_6" depart="28" reroute="1" departLane="free"/>
<vehicle id="74" type="data" route="r_5" depart="28" reroute="1" departLane="free"/>
<vehicle id="75" type="human" route="r_1" depart="29" reroute="1" departLane="free"/>
<vehicle id="76" type="human" route="r_3" depart="29" reroute="1" departLane="free"/>
<vehicle id="77" type="data" route="r_1" depart="29" reroute="1" departLane="free"/>
<vehicle id="78" type="data" route="r_5" depart="29" reroute="1" departLane="free"/>
<vehicle id="79" type="human" route="r_2" depart="33" reroute="1" departLane="free"/>
<vehicle id="80" type="data" route="r_7" depart="33" reroute="1" departLane="free"/>
<vehicle id="81" type="human" route="r_7" depart="34" reroute="1" departLane="free"/>
<vehicle id="82" type="human" route="r_1" depart="34" reroute="1" departLane="free"/>
<vehicle id="83" type="human" route="r_3" depart="34" reroute="1" departLane="free"/>
<vehicle id="84" type="data" route="r_3" depart="34" reroute="1" departLane="free"/>
<vehicle id="85" type="data" route="r_3" depart="34" reroute="1" departLane="free"/>
<vehicle id="86" type="data" route="r_6" depart="34" reroute="1" departLane="free"/>
<vehicle id="87" type="human" route="r_4" depart="36" reroute="1" departLane="free"/>
<vehicle id="88" type="data" route="r_7" depart="36" reroute="1" departLane="free"/>
<vehicle id="89" type="human" route="r_6" depart="37" reroute="1" departLane="free"/>
<vehicle id="90" type="human" route="r_2" depart="37" reroute="1" departLane="free"/>
<vehicle id="91" type="human" route="r_7" depart="37" reroute="1" departLane="free"/>
<vehicle id="92" type="human" route="r_7" depart="37" reroute="1" departLane="free"/>
<vehicle id="93" type="data" route="r_2" depart="37" reroute="1" departLane="free"/>
<vehicle id="94" type="data" route="r_2" depart="37" reroute="1" departLane="free"/>
<vehicle id="95" type="data" route="r_8" depart="37" reroute="1" departLane="free"/>
<vehicle id="96" type="data" route="r_7" depart="37" reroute="1" departLane="free"/>
<vehicle id="97" type="human" route="r_4" depart="38" reroute="1" departLane="free"/>
<vehicle id="98" type="data" route="r_8" depart="38" reroute="1" departLane="free"/>
<vehicle id="99" type="human" route="r_6" depart="40" reroute="1" departLane="free"/>
<vehicle id="100" type="data" route="r_1" depart="40" reroute="1" departLane="free"/>
<vehicle id="101" type="human" route="r_1" depart="41" reroute="1" departLane="free"/>
<vehicle id="102" type="human" route="r_8" depart="41" reroute="1" departLane="free"/>
<vehicle id="103" type="data" route="r_8" depart="41" reroute="1" departLane="free"/>
<vehicle id="104" type="data" route="r_2" depart="41" reroute="1" departLane="free"/>
<vehicle id="105" type="human" route="r_5" depart="43" reroute="1" departLane="free"/>
<vehicle id="106" type="human" route="r_4" depart="43" reroute="1" departLane="free"/>
<vehicle id="107" type="human" route="r_2" depart="43" reroute="1" departLane="free"/>
<vehicle id="108" type="human" route="r_7" depart="43" reroute="1" departLane="free"/>
<vehicle id="109" type="human" route="r_2" depart="43" reroute="1" departLane="free"/>
<vehicle id="110" type="data" route="r_1" depart="43" reroute="1" departLane="free"/>
<vehicle id="111" type="data" route="r_2" depart="43" reroute="1" departLane="free"/>
<vehicle id="112" type="data" route="r_2" depart="43" reroute="1" departLane="free"/>
<vehicle id="113" type="data" route="r_1" depart="43" reroute="1" departLane="free"/>
<vehicle id="114" type="data" route="r_3" depart="43" reroute="1" departLane="free"/>
<vehicle id="115" type="human" route="r_3" depart="44" reroute="1" departLane="free"/>
<vehicle id="116" type="data" route="r_4" depart="44" reroute="1" departLane="free"/>
<vehicle id="117" type="human" route="r_1" depart="45" reroute="1" departLane="free"/>
<vehicle id="118" type="human" route="r_8" depart="45" reroute="1" departLane="free"/>
<vehicle id="119" type="human" route="r_5" depart="45" reroute="1" departLane="free"/>
<vehicle id="120" type="human" route="r_8" depart="45" reroute="1" departLane="free"/>
<vehicle id="121" type="human" route="r_7" depart="45" reroute="1" departLane="free"/>
<vehicle id="122" type="human" route="r_1" depart="45" reroute="1" departLane="free"/>
<vehicle id="123" type="data" route="r_4" depart="45" reroute="1" departLane="free"/>
<vehicle id="124" type="data" route="r_6" depart="45" reroute="1" departLane="free"/>
<vehicle id="125" type="data" route="r_1" depart="45" reroute="1" departLane="free"/>
<vehicle id="126" type="data" route="r_4" depart="45" reroute="1" departLane="free"/>
<vehicle id="127" type="data" route="r_6" depart="45" reroute="1" departLane="free"/>
<vehicle id="128" type="data" route="r_8" depart="45" reroute="1" departLane="free"/>
<vehicle id="129" type="human" route="r_7" depart="46" reroute="1" departLane="free"/>
<vehicle id="130" type="human" route="r_5" depart="46" reroute="1" departLane="free"/>
<vehicle id="131" type="data" route="r_5" depart="46" reroute="1" departLane="free"/>
<vehicle id="132" type="data" route="r_2" depart="46" reroute="1" departLane="free"/>
<vehicle id="133" type="human" route="r_8" depart="47" reroute="1" departLane="free"/>
<vehicle id="134" type="human" route="r_3" depart="47" reroute="1" departLane="free"/>
<vehicle id="135" type="data" route="r_4" depart="47" reroute="1" departLane="free"/>
<vehicle id="136" type="data" route="r_7" depart="47" reroute="1" departLane="free"/>
<vehicle id="137" type="human" route="r_8" depart="48" reroute="1" departLane="free"/>
<vehicle id="138" type="data" route="r_6" depart="48" reroute="1" departLane="free"/>
<vehicle id="139" type="human" route="r_6" depart="49" reroute="1" departLane="free"/>
<vehicle id="140" type="data" route="r_6" depart="49" reroute="1" departLane="free"/>
<vehicle id="141" type="human" route="r_3" depart="51" reroute="1" departLane="free"/>
<vehicle id="142" type="data" route="r_5" depart="51" reroute="1" departLane="free"/>
<vehicle id="143" type="human" route="r_2" depart="52" reroute="1" departLane="free"/>
<vehicle id="144" type="data" route="r_3" depart="52" reroute="1" departLane="free"/>
<vehicle id="145" type="human" route="r_6" depart="53" reroute="1" departLane="free"/>
<vehicle id="146" type="data" route="r_2" depart="53" reroute="1" departLane="free"/>
<vehicle id="147" type="human" route="r_6" depart="54" reroute="1" departLane="free"/>
<vehicle id="148" type="human" route="r_4" depart="54" reroute="1" departLane="free"/>
<vehicle id="149" type="human" route="r_8" depart="54" reroute="1" departLane="free"/>
<vehicle id="150" type="human" route="r_3" depart="54" reroute="1" departLane="free"/>
<vehicle id="151" type="data" route="r_5" depart="54" reroute="1" departLane="free"/>
<vehicle id="152" type="data" route="r_6" depart="54" reroute="1" departLane="free"/>
<vehicle id="153" type="data" route="r_2" depart="54" reroute="1" departLane="free"/>
<vehicle id="154" type="data" route="r_7" depart="54" reroute="1" departLane="free"/>
<vehicle id="155" type="human" route="r_7" depart="55" reroute="1" departLane="free"/>
<vehicle id="156" type="human" route="r_6" depart="55" reroute="1" departLane="free"/>
<vehicle id="157" type="human" route="r_8" depart="55" reroute="1" departLane="free"/>
<vehicle id="158" type="data" route="r_2" depart="55" reroute="1" departLane="free"/>
<vehicle id="159" type="data" route="r_6" depart="55" reroute="1" departLane="free"/>
<vehicle id="160" type="data" route="r_2" depart="55" reroute="1" departLane="free"/>
<vehicle id="161" type="human" route="r_2" depart="56" reroute="1" departLane="free"/>
<vehicle id="162" type="human" route="r_7" depart="56" reroute="1" departLane="free"/>
<vehicle id="163" type="data" route="r_5" depart="56" reroute="1" departLane="free"/>
<vehicle id="164" type="data" route="r_2" depart="56" reroute="1" departLane="free"/>
<vehicle id="165" type="human" route="r_7" depart="57" reroute="1" departLane="free"/>
<vehicle id="166" type="data" route="r_7" depart="57" reroute="1" departLane="free"/>
<vehicle id="167" type="human" route="r_5" depart="58" reroute="1" departLane="free"/>
<vehicle id="168" type="human" route="r_4" depart="58" reroute="1" departLane="free"/>
<vehicle id="169" type="human" route="r_8" depart="59" reroute="1" departLane="free"/>
<vehicle id="170" type="human" route="r_4" depart="59" reroute="1" departLane="free"/>
<vehicle id="171" type="human" route="r_1" depart="59" reroute="1" departLane="free"/>
<vehicle id="172" type="data" route="r_4" depart="59" reroute="1" departLane="free"/>
<vehicle id="173" type="data" route="r_3" depart="59" reroute="1" departLane="free"/>
<vehicle id="174" type="data" route="r_8" depart="59" reroute="1" departLane="free"/>
<vehicle id="175" type="human" route="r_1" depart="60" reroute="1" departLane="free"/>
<vehicle id="176" type="data" route="r_1" depart="60" reroute="1" departLane="free"/>
<vehicle id="177" type="human" route="r_4" depart="61" reroute="1" departLane="free"/>
<vehicle id="178" type="human" route="r_4" depart="61" reroute="1" departLane="free"/>
<vehicle id="179" type="human" route="r_1" depart="61" reroute="1" departLane="free"/>
<vehicle id="180" type="data" route="r_2" depart="61" reroute="1" departLane="free"/>
<vehicle id="181" type="data" route="r_7" depart="61" reroute="1" departLane="free"/>
<vehicle id="182" type="data" route="r_3" depart="61" reroute="1" departLane="free"/>
<vehicle id="183" type="human" route="r_3" depart="62" reroute="1" departLane="free"/>
<vehicle id="184" type="data" route="r_3" depart="62" reroute="1" departLane="free"/>
<vehicle id="185" type="human" route="r_8" depart="63" reroute="1" departLane="free"/>
<vehicle id="186" type="human" route="r_4" depart="63" reroute="1" departLane="free"/>
<vehicle id="187" type="data" route="r_3" depart="63" reroute="1" departLane="free"/>
<vehicle id="188" type="data" route="r_5" depart="63" reroute="1" departLane="free"/>
<vehicle id="189" type="human" route="r_3" depart="64" reroute="1" departLane="free"/>
<vehicle id="190" type="human" route="r_3" depart="64" reroute="1" departLane="free"/>
<vehicle id="191" type="human" route="r_8" depart="64" reroute="1" departLane="free"/>
<vehicle id="192" type="human" route="r_5" depart="64" reroute="1" departLane="free"/>
<vehicle id="193" type="data" route="r_5" depart="64" reroute="1" departLane="free"/>
<vehicle id="194" type="data" route="r_8" depart="64" reroute="1" departLane="free"/>
<vehicle id="195" type="data" route="r_2" depart="64" reroute="1" departLane="free"/>
<vehicle id="196" type="data" route="r_6" depart="64" reroute="1" departLane="free"/>
<vehicle id="197" type="human" route="r_1" depart="65" reroute="1" departLane="free"/>
<vehicle id="198" type="human" route="r_2" depart="65" reroute="1" departLane="free"/>
<vehicle id="199" type="data" route="r_1" depart="65" reroute="1" departLane="free"/>
<vehicle id="200" type="data" route="r_1" depart="65" reroute="1" departLane="free"/>
<vehicle id="201" type="human" route="r_1" depart="66" reroute="1" departLane="free"/>
<vehicle id="202" type="data" route="r_1" depart="66" reroute="1" departLane="free"/>
<vehicle id="203" type="human" route="r_8" depart="67" reroute="1" departLane="free"/>
<vehicle id="204" type="human" route="r_3" depart="67" reroute="1" departLane="free"/>
<vehicle id="205" type="data" route="r_7" depart="67" reroute="1" departLane="free"/>
<vehicle id="206" type="data" route="r_1" depart="67" reroute="1" departLane="free"/>
<vehicle id="207" type="human" route="r_8" depart="68" reroute="1" departLane="free"/>
<vehicle id="208" type="data" route="r_5" depart="68" reroute="1" departLane="free"/>
<vehicle id="209" type="human" route="r_1" depart="69" reroute="1" departLane="free"/>
<vehicle id="210" type="data" route="r_8" depart="69" reroute="1" departLane="free"/>
<vehicle id="211" type="human" route="r_2" depart="71" reroute="1" departLane="free"/>
<vehicle id="212" type="human" route="r_3" depart="71" reroute="1" departLane="free"/>
<vehicle id="213" type="human" route="r_8" depart="71" reroute="1" departLane="free"/>
<vehicle id="214" type="data" route="r_6" depart="71" reroute="1" departLane="free"/>
<vehicle id="215" type="data" route="r_7" depart="71" reroute="1" departLane="free"/>
<vehicle id="216" type="data" route="r_6" depart="71" reroute="1" departLane="free"/>
<vehicle id="217" type="human" route="r_8" depart="72" reroute="1" departLane="free"/>
<vehicle id="218" type="human" route="r_4" depart="72" reroute="1" departLane="free"/>
<vehicle id="219" type="human" route="r_2" depart="72" reroute="1" departLane="free"/>
<vehicle id="220" type="human" route="r_2" depart="74" reroute="1" departLane="free"/>
<vehicle id="221" type="human" route="r_3" depart="74" reroute="1" departLane="free"/>
<vehicle id="222" type="human" route="r_2" depart="74" reroute="1" departLane="free"/>
<vehicle id="223" type="data" route="r_4" depart="74" reroute="1" departLane="free"/>
<vehicle id="224" type="data" route="r_6" depart="74" reroute="1" departLane="free"/>
<vehicle id="225" type="data" route="r_3" depart="74" reroute="1" departLane="free"/>
<vehicle id="226" type="human" route="r_6" depart="80" reroute="1" departLane="free"/>
<vehicle id="227" type="human" route="r_8" depart="80" reroute="1" departLane="free"/>
<vehicle id="228" type="data" route="r_5" depart="80" reroute="1" departLane="free"/>
<vehicle id="229" type="data" route="r_1" depart="80" reroute="1" departLane="free"/>
<vehicle id="230" type="human" route="r_6" depart="82" reroute="1" departLane="free"/>
<vehicle id="231" type="human" route="r_3" depart="82" reroute="1" departLane="free"/>
<vehicle id="232" type="human" route="r_3" depart="82" reroute="1" departLane="free"/>
<vehicle id="233" type="human" route="r_7" depart="82" reroute="1" departLane="free"/>
<vehicle id="234" type="human" route="r_4" depart="82" reroute="1" departLane="free"/>
<vehicle id="235" type="human" route="r_5" depart="82" reroute="1" departLane="free"/>
<vehicle id="236" type="data" route="r_3" depart="82" reroute="1" departLane="free"/>
<vehicle id="237" type="data" route="r_1" depart="82" reroute="1" departLane="free"/>
<vehicle id="238" type="data" route="r_3" depart="82" reroute="1" departLane="free"/>
<vehicle id="239" type="data" route="r_7" depart="82" reroute="1" departLane="free"/>
<vehicle id="240" type="data" route="r_6" depart="82" reroute="1" departLane="free"/>
<vehicle id="241" type="data" route="r_3" depart="82" reroute="1" departLane="free"/>
<vehicle id="242" type="human" route="r_2" depart="83" reroute="1" departLane="free"/>
<vehicle id="243" type="data" route="r_7" depart="83" reroute="1" departLane="free"/>
<vehicle id="244" type="human" route="r_5" depart="84" reroute="1" departLane="free"/>
<vehicle id="245" type="human" route="r_7" depart="84" reroute="1" departLane="free"/>
<vehicle id="246" type="data" route="r_6" depart="84" reroute="1" departLane="free"/>
<vehicle id="247" type="data" route="r_5" depart="84" reroute="1" departLane="free"/>
<vehicle id="248" type="human" route="r_3" depart="85" reroute="1" departLane="free"/>
<vehicle id="249" type="data" route="r_1" depart="85" reroute="1" departLane="free"/>
<vehicle id="250" type="human" route="r_4" depart="86" reroute="1" departLane="free"/>
<vehicle id="251" type="data" route="r_1" depart="86" reroute="1" departLane="free"/>
<vehicle id="252" type="human" route="r_5" depart="88" reroute="1" departLane="free"/>
<vehicle id="253" type="data" route="r_6" depart="88" reroute="1" departLane="free"/>
<vehicle id="254" type="human" route="r_5" depart="89" reroute="1" departLane="free"/>
<vehicle id="255" type="human" route="r_5" depart="89" reroute="1" departLane="free"/>
<vehicle id="256" type="human" route="r_4" depart="89" reroute="1" departLane="free"/>
<vehicle id="257" type="data" route="r_3" depart="89" reroute="1" departLane="free"/>
<vehicle id="258" type="data" route="r_3" depart="89" reroute="1" departLane="free"/>
<vehicle id="259" type="data" route="r_5" depart="89" reroute="1" departLane="free"/>
<vehicle id="260" type="human" route="r_3" depart="90" reroute="1" departLane="free"/>
<vehicle id="261" type="human" route="r_6" depart="90" reroute="1" departLane="free"/>
<vehicle id="262" type="human" route="r_8" depart="90" reroute="1" departLane="free"/>
<vehicle id="263" type="human" route="r_6" depart="91" reroute="1" departLane="free"/>
<vehicle id="264" type="human" route="r_5" depart="91" reroute="1" departLane="free"/>
<vehicle id="265" type="data" route="r_8" depart="91" reroute="1" departLane="free"/>
<vehicle id="266" type="data" route="r_3" depart="91" reroute="1" departLane="free"/>
<vehicle id="267" type="human" route="r_4" depart="92" reroute="1" departLane="free"/>
<vehicle id="268" type="data" route="r_3" depart="92" reroute="1" departLane="free"/>
<vehicle id="269" type="human" route="r_1" depart="93" reroute="1" departLane="free"/>
<vehicle id="270" type="human" route="r_3" depart="94" reroute="1" departLane="free"/>
<vehicle id="271" type="human" route="r_3" depart="94" reroute="1" departLane="free"/>
<vehicle id="272" type="data" route="r_1" depart="94" reroute="1" departLane="free"/>
<vehicle id="273" type="data" route="r_5" depart="94" reroute="1" departLane="free"/>
<vehicle id="274" type="human" route="r_5" depart="95" reroute="1" departLane="free"/>
<vehicle id="275" type="human" route="r_7" depart="95" reroute="1" departLane="free"/>
<vehicle id="276" type="human" route="r_4" depart="95" reroute="1" departLane="free"/>
<vehicle id="277" type="data" route="r_3" depart="95" reroute="1" departLane="free"/>
<vehicle id="278" type="data" route="r_1" depart="95" reroute="1" departLane="free"/>
<vehicle id="279" type="data" route="r_6" depart="95" reroute="1" departLane="free"/>
<vehicle id="280" type="human" route="r_7" depart="96" reroute="1" departLane="free"/>
<vehicle id="281" type="human" route="r_6" depart="96" reroute="1" departLane="free"/>
<vehicle id="282" type="data" route="r_1" depart="96" reroute="1" departLane="free"/>
<vehicle id="283" type="data" route="r_1" depart="96" reroute="1" departLane="free"/>
<vehicle id="284" type="human" route="r_7" depart="98" reroute="1" departLane="free"/>
<vehicle id="285" type="human" route="r_4" depart="99" reroute="1" departLane="free"/>
<vehicle id="286" type="data" route="r_6" depart="99" reroute="1" departLane="free"/>
<vehicle id="287" type="human" route="r_4" depart="101" reroute="1" departLane="free"/>
<vehicle id="288" type="human" route="r_1" depart="101" reroute="1" departLane="free"/>
<vehicle id="289" type="human" route="r_5" depart="101" reroute="1" departLane="free"/>
<vehicle id="290" type="data" route="r_5" depart="101" reroute="1" departLane="free"/>
<vehicle id="291" type="data" route="r_3" depart="101" reroute="1" departLane="free"/>
<vehicle id="292" type="data" route="r_1" depart="101" reroute="1" departLane="free"/>
<vehicle id="293" type="human" route="r_4" depart="102" reroute="1" departLane="free"/>
<vehicle id="294" type="data" route="r_4" depart="102" reroute="1" departLane="free"/>
<vehicle id="295" type="human" route="r_3" depart="103" reroute="1" departLane="free"/>
<vehicle id="296" type="human" route="r_6" depart="103" reroute="1" departLane="free"/>
<vehicle id="297" type="human" route="r_6" depart="103" reroute="1" departLane="free"/>
<vehicle id="298" type="human" route="r_3" depart="103" reroute="1" departLane="free"/>
<vehicle id="299" type="human" route="r_5" depart="103" reroute="1" departLane="free"/>
<vehicle id="300" type="human" route="r_7" depart="103" reroute="1" departLane="free"/>
<vehicle id="301" type="data" route="r_4" depart="103" reroute="1" departLane="free"/>
<vehicle id="302" type="data" route="r_8" depart="103" reroute="1" departLane="free"/>
<vehicle id="303" type="data" route="r_3" depart="103" reroute="1" departLane="free"/>
<vehicle id="304" type="data" route="r_5" depart="103" reroute="1" departLane="free"/>
<vehicle id="305" type="data" route="r_3" depart="103" reroute="1" departLane="free"/>
<vehicle id="306" type="data" route="r_5" depart="103" reroute="1" departLane="free"/>
<vehicle id="307" type="human" route="r_5" depart="105" reroute="1" departLane="free"/>
<vehicle id="308" type="human" route="r_5" depart="105" reroute="1" departLane="free"/>
<vehicle id="309" type="data" route="r_2" depart="105" reroute="1" departLane="free"/>
<vehicle id="310" type="data" route="r_5" depart="105" reroute="1" departLane="free"/>
<vehicle id="311" type="human" route="r_5" depart="108" reroute="1" departLane="free"/>
<vehicle id="312" type="human" route="r_5" depart="108" reroute="1" departLane="free"/>
<vehicle id="313" type="data" route="r_4" depart="108" reroute="1" departLane="free"/>
<vehicle id="314" type="data" route="r_8" depart="108" reroute="1" departLane="free"/>
<vehicle id="315" type="human" route="r_2" depart="109" reroute="1" departLane="free"/>
<vehicle id="316" type="human" route="r_5" depart="109" reroute="1" departLane="free"/>
<vehicle id="317" type="human" route="r_1" depart="109" reroute="1" departLane="free"/>
<vehicle id="318" type="data" route="r_4" depart="109" reroute="1" departLane="free"/>
<vehicle id="319" type="data" route="r_7" depart="109" reroute="1" departLane="free"/>
<vehicle id="320" type="data" route="r_8" depart="109" reroute="1" departLane="free"/>
<vehicle id="321" type="human" route="r_4" depart="110" reroute="1" departLane="free"/>
<vehicle id="322" type="human" route="r_8" depart="110" reroute="1" departLane="free"/>
<vehicle id="323" type="human" route="r_8" depart="110" reroute="1" departLane="free"/>
<vehicle id="324" type="human" route="r_5" depart="110" reroute="1" departLane="free"/>
<vehicle id="325" type="human" route="r_4" depart="110" reroute="1" departLane="free"/>
<vehicle id="326" type="data" route="r_4" depart="110" reroute="1" departLane="free"/>
<vehicle id="327" type="data" route="r_7" depart="110" reroute="1" departLane="free"/>
<vehicle id="328" type="data" route="r_5" depart="110" reroute="1" departLane="free"/>
<vehicle id="329" type="data" route="r_5" depart="110" reroute="1" departLane="free"/>
<vehicle id="330" type="data" route="r_4" depart="110" reroute="1" departLane="free"/>
<vehicle id="331" type="human" route="r_4" depart="111" reroute="1" departLane="free"/>
<vehicle id="332" type="data" route="r_4" depart="111" reroute="1" departLane="free"/>
<vehicle id="333" type="human" route="r_7" depart="112" reroute="1" departLane="free"/>
<vehicle id="334" type="data" route="r_7" depart="112" reroute="1" departLane="free"/>
<vehicle id="335" type="human" route="r_6" depart="114" reroute="1" departLane="free"/>